/*--------------------------------*- C++ -*----------------------------------*\
| =========                 |                                                 |
| \\      /  F ield         | OpenFOAM: The Open Source CFD Toolbox           |
|  \\    /   O peration     | Version:  7                                     |
|   \\  /    A nd           | Web:      www.OpenFOAM.com                      |
|    \\/     M anipulation  |                                                 |
\*---------------------------------------------------------------------------*/
FoamFile
{
    version     2.0;
    format      ascii;
    class       dictionary;
    object      fvSchemes;
}
// * * * * * * * * * * * * * * * * * * * * * * * * * * * * * * * * * * * * * //

ddtSchemes
{
    //default         CrankNicolson 0.9;
    default         Euler;
}

gradSchemes
{
    default        Gauss linear;
    //default 	     cellMDLimited Gauss linear 0.5;
    //default 	     cellMDLimited leastSquares 1.0;
    //default 	     cellLimited Gauss linear 1.0;
}

divSchemes
{
    default          none;
    //div(phi,U)      	Gauss linear;
    //div(phi,U)      	Gauss limitedLinearV 1;
    div(phi,U)      	Gauss linearUpwindV default;
    //div(phi,U)      	Gauss upwind;

    div((nuEff*dev2(T(grad(U))))) Gauss linear;
}

laplacianSchemes
{
    default         Gauss linear limited 1;
}

interpolationSchemes
{
    default         linear;
}

snGradSchemes
{
    default         limited 1;
}

oversetInterpolation
{
    method          inverseDistance;//cellVolumeWeight;
}
/*
wallDist
{
    method meshWave;
}

fluxRequired
{
    default         no;
    pcorr           ;
    p               ;
}
*/

// ************************************************************************* //
